elastic_wave	elastic_wave-module.html
elastic_wave.main	elastic_wave-module.html#main
elastic_wave.__package__	elastic_wave-module.html#__package__
elastodynamic	elastodynamic-module.html
elastodynamic.Evaluate	elastodynamic-module.html#Evaluate
elastodynamic.__package__	elastodynamic-module.html#__package__
elastodynamic.ElastoDynamicsOperator	elastodynamic.ElastoDynamicsOperator-class.html
elastodynamic.ElastoDynamicsOperator.__init__	elastodynamic.ElastoDynamicsOperator-class.html#__init__
elastodynamic.ElastoDynamicsOperator.bdry_flux	elastodynamic.ElastoDynamicsOperator-class.html#bdry_flux
elastodynamic.ElastoDynamicsOperator.op_template	elastodynamic.ElastoDynamicsOperator-class.html#op_template
elastodynamic.ElastoDynamicsOperator.add_sources	elastodynamic.ElastoDynamicsOperator-class.html#add_sources
elastodynamic.ElastoDynamicsOperator.bind_sources	elastodynamic.ElastoDynamicsOperator-class.html#bind_sources
elastodynamic.ElastoDynamicsOperator.max_eigenvalue	elastodynamic.ElastoDynamicsOperator-class.html#max_eigenvalue
elastodynamic.ElastoDynamicsOperator.F	elastodynamic.ElastoDynamicsOperator-class.html#F
elastodynamic.ElastoDynamicsOperator.P	elastodynamic.ElastoDynamicsOperator-class.html#P
elastodynamic.ElastoDynamicsOperator.rho_v	elastodynamic.ElastoDynamicsOperator-class.html#rho_v
elastodynamic.ElastoDynamicsOperator.flux_num	elastodynamic.ElastoDynamicsOperator-class.html#flux_num
elastodynamic.ElastoDynamicsOperator.bind	elastodynamic.ElastoDynamicsOperator-class.html#bind
elastodynamic.ElastoDynamicsOperator.m	elastodynamic.ElastoDynamicsOperator-class.html#m
elastodynamic.ElastoDynamicsOperator.q	elastodynamic.ElastoDynamicsOperator-class.html#q
elastodynamic.ElastoDynamicsOperator.flux	elastodynamic.ElastoDynamicsOperator-class.html#flux
elastodynamic.ElastoDynamicsOperator.v	elastodynamic.ElastoDynamicsOperator-class.html#v
elastodynamic.NLElastoDynamicsOperator	elastodynamic.NLElastoDynamicsOperator-class.html
elastodynamic.NLElastoDynamicsOperator.C_eq	elastodynamic.NLElastoDynamicsOperator-class.html#C_eq
elastodynamic.NLElastoDynamicsOperator.__init__	elastodynamic.NLElastoDynamicsOperator-class.html#__init__
elastodynamic.NLElastoDynamicsOperator.bdry_flux	elastodynamic.NLElastoDynamicsOperator-class.html#bdry_flux
elastodynamic.ElastoDynamicsOperator.op_template	elastodynamic.ElastoDynamicsOperator-class.html#op_template
elastodynamic.ElastoDynamicsOperator.add_sources	elastodynamic.ElastoDynamicsOperator-class.html#add_sources
elastodynamic.ElastoDynamicsOperator.bind_sources	elastodynamic.ElastoDynamicsOperator-class.html#bind_sources
elastodynamic.ElastoDynamicsOperator.max_eigenvalue	elastodynamic.ElastoDynamicsOperator-class.html#max_eigenvalue
elastodynamic.ElastoDynamicsOperator.F	elastodynamic.ElastoDynamicsOperator-class.html#F
elastodynamic.NLElastoDynamicsOperator.M	elastodynamic.NLElastoDynamicsOperator-class.html#M
elastodynamic.NLElastoDynamicsOperator.P	elastodynamic.NLElastoDynamicsOperator-class.html#P
elastodynamic.ElastoDynamicsOperator.rho_v	elastodynamic.ElastoDynamicsOperator-class.html#rho_v
elastodynamic.ElastoDynamicsOperator.flux_num	elastodynamic.ElastoDynamicsOperator-class.html#flux_num
elastodynamic.ElastoDynamicsOperator.bind	elastodynamic.ElastoDynamicsOperator-class.html#bind
elastodynamic.ElastoDynamicsOperator.m	elastodynamic.ElastoDynamicsOperator-class.html#m
elastodynamic.ElastoDynamicsOperator.q	elastodynamic.ElastoDynamicsOperator-class.html#q
elastodynamic.NLElastoDynamicsOperator.flux	elastodynamic.NLElastoDynamicsOperator-class.html#flux
elastodynamic.ElastoDynamicsOperator.v	elastodynamic.ElastoDynamicsOperator-class.html#v
elastodynamic.NLNPMLElastoDynamicsOperator	elastodynamic.NLNPMLElastoDynamicsOperator-class.html
elastodynamic.NLElastoDynamicsOperator.C_eq	elastodynamic.NLElastoDynamicsOperator-class.html#C_eq
elastodynamic.NPMLElastoDynamicsOperator.PMLCoefficients	elastodynamic.NPMLElastoDynamicsOperator.PMLCoefficients-class.html
elastodynamic.NPMLElastoDynamicsOperator.coefficients_from_width	elastodynamic.NPMLElastoDynamicsOperator-class.html#coefficients_from_width
elastodynamic.NPMLElastoDynamicsOperator.bounding_box	elastodynamic.NPMLElastoDynamicsOperator-class.html#bounding_box
elastodynamic.NLNPMLElastoDynamicsOperator.__init__	elastodynamic.NLNPMLElastoDynamicsOperator-class.html#__init__
elastodynamic.NLElastoDynamicsOperator.bdry_flux	elastodynamic.NLElastoDynamicsOperator-class.html#bdry_flux
elastodynamic.NLNPMLElastoDynamicsOperator.op_template	elastodynamic.NLNPMLElastoDynamicsOperator-class.html#op_template
elastodynamic.ElastoDynamicsOperator.add_sources	elastodynamic.ElastoDynamicsOperator-class.html#add_sources
elastodynamic.ElastoDynamicsOperator.bind_sources	elastodynamic.ElastoDynamicsOperator-class.html#bind_sources
elastodynamic.ElastoDynamicsOperator.max_eigenvalue	elastodynamic.ElastoDynamicsOperator-class.html#max_eigenvalue
elastodynamic.ElastoDynamicsOperator.F	elastodynamic.ElastoDynamicsOperator-class.html#F
elastodynamic.NLElastoDynamicsOperator.M	elastodynamic.NLElastoDynamicsOperator-class.html#M
elastodynamic.NLElastoDynamicsOperator.P	elastodynamic.NLElastoDynamicsOperator-class.html#P
elastodynamic.ElastoDynamicsOperator.rho_v	elastodynamic.ElastoDynamicsOperator-class.html#rho_v
elastodynamic.ElastoDynamicsOperator.flux_num	elastodynamic.ElastoDynamicsOperator-class.html#flux_num
elastodynamic.NPMLElastoDynamicsOperator.F2	elastodynamic.NPMLElastoDynamicsOperator-class.html#F2
elastodynamic.NPMLElastoDynamicsOperator.coefficients_from_boxes	elastodynamic.NPMLElastoDynamicsOperator-class.html#coefficients_from_boxes
elastodynamic.NPMLElastoDynamicsOperator.bind	elastodynamic.NPMLElastoDynamicsOperator-class.html#bind
elastodynamic.NPMLElastoDynamicsOperator.construct_scalar_coefficients	elastodynamic.NPMLElastoDynamicsOperator-class.html#construct_scalar_coefficients
elastodynamic.ElastoDynamicsOperator.m	elastodynamic.ElastoDynamicsOperator-class.html#m
elastodynamic.ElastoDynamicsOperator.q	elastodynamic.ElastoDynamicsOperator-class.html#q
elastodynamic.NLNPMLElastoDynamicsOperator.flux	elastodynamic.NLNPMLElastoDynamicsOperator-class.html#flux
elastodynamic.ElastoDynamicsOperator.v	elastodynamic.ElastoDynamicsOperator-class.html#v
elastodynamic.NPMLElastoDynamicsOperator	elastodynamic.NPMLElastoDynamicsOperator-class.html
elastodynamic.NPMLElastoDynamicsOperator.PMLCoefficients	elastodynamic.NPMLElastoDynamicsOperator.PMLCoefficients-class.html
elastodynamic.NPMLElastoDynamicsOperator.coefficients_from_width	elastodynamic.NPMLElastoDynamicsOperator-class.html#coefficients_from_width
elastodynamic.NPMLElastoDynamicsOperator.bounding_box	elastodynamic.NPMLElastoDynamicsOperator-class.html#bounding_box
elastodynamic.NPMLElastoDynamicsOperator.__init__	elastodynamic.NPMLElastoDynamicsOperator-class.html#__init__
elastodynamic.NPMLElastoDynamicsOperator.bdry_flux	elastodynamic.NPMLElastoDynamicsOperator-class.html#bdry_flux
elastodynamic.NPMLElastoDynamicsOperator.op_template	elastodynamic.NPMLElastoDynamicsOperator-class.html#op_template
elastodynamic.ElastoDynamicsOperator.add_sources	elastodynamic.ElastoDynamicsOperator-class.html#add_sources
elastodynamic.ElastoDynamicsOperator.bind_sources	elastodynamic.ElastoDynamicsOperator-class.html#bind_sources
elastodynamic.ElastoDynamicsOperator.max_eigenvalue	elastodynamic.ElastoDynamicsOperator-class.html#max_eigenvalue
elastodynamic.ElastoDynamicsOperator.F	elastodynamic.ElastoDynamicsOperator-class.html#F
elastodynamic.ElastoDynamicsOperator.P	elastodynamic.ElastoDynamicsOperator-class.html#P
elastodynamic.ElastoDynamicsOperator.rho_v	elastodynamic.ElastoDynamicsOperator-class.html#rho_v
elastodynamic.ElastoDynamicsOperator.flux_num	elastodynamic.ElastoDynamicsOperator-class.html#flux_num
elastodynamic.NPMLElastoDynamicsOperator.F2	elastodynamic.NPMLElastoDynamicsOperator-class.html#F2
elastodynamic.NPMLElastoDynamicsOperator.coefficients_from_boxes	elastodynamic.NPMLElastoDynamicsOperator-class.html#coefficients_from_boxes
elastodynamic.NPMLElastoDynamicsOperator.bind	elastodynamic.NPMLElastoDynamicsOperator-class.html#bind
elastodynamic.NPMLElastoDynamicsOperator.construct_scalar_coefficients	elastodynamic.NPMLElastoDynamicsOperator-class.html#construct_scalar_coefficients
elastodynamic.ElastoDynamicsOperator.m	elastodynamic.ElastoDynamicsOperator-class.html#m
elastodynamic.ElastoDynamicsOperator.q	elastodynamic.ElastoDynamicsOperator-class.html#q
elastodynamic.NPMLElastoDynamicsOperator.flux	elastodynamic.NPMLElastoDynamicsOperator-class.html#flux
elastodynamic.ElastoDynamicsOperator.v	elastodynamic.ElastoDynamicsOperator-class.html#v
elastodynamic.NPMLElastoDynamicsOperator.PMLCoefficients	elastodynamic.NPMLElastoDynamicsOperator.PMLCoefficients-class.html
elastodynamic.NPMLElastoDynamicsOperator.PMLCoefficients.map	elastodynamic.NPMLElastoDynamicsOperator.PMLCoefficients-class.html#map
elastodynamic.NPMLElastoDynamicsOperator.PMLCoefficients.alpha	elastodynamic.NPMLElastoDynamicsOperator.PMLCoefficients-class.html#alpha
elastodynamic.NPMLElastoDynamicsOperator.PMLCoefficients.kappa	elastodynamic.NPMLElastoDynamicsOperator.PMLCoefficients-class.html#kappa
elastodynamic.NPMLElastoDynamicsOperator.PMLCoefficients.sigma	elastodynamic.NPMLElastoDynamicsOperator.PMLCoefficients-class.html#sigma
